  
       XFOIL         Version 6.99
  
 Calculated polar for: AG16                                            
  
 1 1 Reynolds number fixed          Mach number fixed         
  
 xtrf =   1.000 (top)        1.000 (bottom)  
 Mach =   0.000     Re =     0.300 e 6     Ncrit =   9.000  9.000
  
   alpha    CL        CD       CDp       CM     Top_Xtr  Bot_Xtr  Top_Itr  Bot_Itr
  ------ -------- --------- --------- -------- -------- -------- -------- --------
  -3.000  -0.1338   0.00888   0.00120  -0.0469   1.0000   0.2025   1.0000 177.5131
  -2.500  -0.0810   0.00828   0.00117  -0.0467   1.0000   0.3212   1.0000 192.6905
  -2.000  -0.0281   0.00787   0.00122  -0.0464   1.0000   0.4208   1.0000 205.3744
  -1.500   0.0314   0.00749   0.00133  -0.0476   0.9969   0.5336   1.7050 219.7355
  -1.000   0.1129   0.00681   0.00137  -0.0529   0.9788   0.6982   4.4068 240.7367
  -0.500   0.1847   0.00600   0.00124  -0.0548   0.9499   1.0000   8.1393 280.0000
   0.000   0.2457   0.00600   0.00109  -0.0550   0.9031   1.0000  14.1215 280.0000
   0.500   0.2973   0.00614   0.00098  -0.0532   0.8455   1.0000  21.4836 280.0000
   1.000   0.3489   0.00640   0.00092  -0.0515   0.7836   1.0000  29.4022 280.0000
   1.500   0.4015   0.00674   0.00089  -0.0502   0.7201   1.0000  37.5119 280.0000
   2.000   0.4547   0.00714   0.00091  -0.0493   0.6559   1.0000  45.7114 280.0000
   2.500   0.5082   0.00758   0.00095  -0.0485   0.5912   1.0000  53.9781 280.0000
   3.000   0.5618   0.00807   0.00103  -0.0478   0.5247   1.0000  62.4886 280.0000
   3.500   0.6153   0.00863   0.00115  -0.0473   0.4564   1.0000  71.2235 280.0000
   4.000   0.6685   0.00927   0.00131  -0.0468   0.3849   1.0000  80.3778 280.0000
   4.500   0.7214   0.01001   0.00153  -0.0463   0.3135   1.0000  89.5517 280.0000
   5.000   0.7738   0.01086   0.00183  -0.0459   0.2438   1.0000  98.5308 280.0000
   5.500   0.8257   0.01184   0.00221  -0.0454   0.1784   1.0000 107.0107 280.0000
   6.000   0.8766   0.01304   0.00272  -0.0449   0.1133   1.0000 115.6072 280.0000
   6.500   0.9255   0.01469   0.00351  -0.0442   0.0605   1.0000 122.8747 280.0000
   7.000   0.9725   0.01679   0.00461  -0.0430   0.0325   1.0000 127.1008 280.0000
   7.500   1.0168   0.01935   0.00596  -0.0415   0.0210   1.0000 129.1268 280.0000
   8.000   1.0586   0.02240   0.00768  -0.0396   0.0163   1.0000 130.1238 280.0000
   8.500   1.1005   0.02569   0.00979  -0.0376   0.0141   1.0000 130.6631 280.0000
   9.000   1.1354   0.03058   0.01311  -0.0354   0.0125   1.0000 131.0806 280.0000
   9.500   1.1617   0.03681   0.01817  -0.0324   0.0122   1.0000 131.1786 280.0000
  10.000   1.1677   0.04516   0.02530  -0.0291   0.0123   1.0000 131.1257 280.0000
  10.500   1.1539   0.05483   0.03327  -0.0263   0.0128   1.0000 130.9914 280.0000
  11.000   1.0893   0.06752   0.04755  -0.0298   0.0142   1.0000 130.6345 280.0000
  11.500   1.0451   0.08566   0.06647  -0.0453   0.0145   1.0000 130.5743 280.0000
  12.000   0.9825   0.11515   0.09907  -0.0653   0.0154   1.0000 130.3530 280.0000
