  
       XFOIL         Version 6.99
  
 Calculated polar for: RAE 101 AIRFOIL                                 
  
 1 1 Reynolds number fixed          Mach number fixed         
  
 xtrf =   0.125 (top)        0.125 (bottom)  
 Mach =   0.400     Re =    10.000 e 6     Ncrit =  10.000 10.000
  
   alpha    CL        CD       CDp       CM     Top_Xtr  Bot_Xtr  Top_Itr  Bot_Itr
  ------ -------- --------- --------- -------- -------- -------- -------- --------
 -11.800  -0.9214   0.05350   0.00623  -0.0490   0.1250   0.0039  87.8921 148.2777
 -11.700  -0.9264   0.05128   0.00402  -0.0505   0.1250   0.0039  87.8921 148.2785
 -11.600  -0.9316   0.04912   0.00190  -0.0519   0.1250   0.0039  87.8921 148.2801
 -11.500  -0.9371   0.04703  -0.00014  -0.0533   0.1250   0.0039  87.8921 148.2824
 -11.400  -0.9429   0.04503  -0.00210  -0.0545   0.1250   0.0039  87.8921 148.2857
 -11.300  -0.9489   0.04310  -0.00396  -0.0555   0.1250   0.0039  87.8921 148.2901
 -11.200  -0.9552   0.04126  -0.00573  -0.0564   0.1250   0.0039  87.8921 148.2954
 -11.100  -0.9618   0.03951  -0.00741  -0.0571   0.1250   0.0039  87.8921 148.3019
 -11.000  -0.9686   0.03786  -0.00898  -0.0576   0.1250   0.0039  87.8921 148.3095
 -10.900  -0.9758   0.03630  -0.01046  -0.0578   0.1250   0.0039  87.8921 148.3182
 -10.800  -0.9832   0.03485  -0.01184  -0.0577   0.1250   0.0039  87.8921 148.3282
 -10.700  -0.9910   0.03350  -0.01313  -0.0574   0.1250   0.0039  87.8921 148.3395
 -10.600  -0.9989   0.03224  -0.01433  -0.0568   0.1250   0.0039  87.8921 148.3523
 -10.500  -1.0072   0.03107  -0.01545  -0.0558   0.1250   0.0039  87.8921 148.3666
 -10.400  -1.0156   0.02998  -0.01649  -0.0545   0.1250   0.0039  87.8921 148.3827
 -10.300  -1.0242   0.02896  -0.01749  -0.0528   0.1250   0.0040  87.8921 148.4008
 -10.200  -1.0330   0.02801  -0.01842  -0.0508   0.1250   0.0040  87.8921 148.4211
 -10.100  -1.0421   0.02711  -0.01930  -0.0485   0.1250   0.0040  87.8921 148.4434
 -10.000  -1.0514   0.02629  -0.02011  -0.0458   0.1250   0.0040  87.8921 148.4671
  -9.900  -1.0607   0.02556  -0.02090  -0.0429   0.1250   0.0041  87.8921 148.4934
  -9.800  -1.0680   0.02436  -0.02222  -0.0408   0.1250   0.0041  87.8921 148.5420
  -9.700  -1.0748   0.02306  -0.02366  -0.0387   0.1250   0.0042  87.8921 148.6018
  -9.600  -1.0810   0.02170  -0.02519  -0.0366   0.1250   0.0042  87.8921 148.6738
  -9.500  -1.0866   0.02029  -0.02679  -0.0345   0.1250   0.0043  87.8921 148.7587
  -9.400  -1.0913   0.01886  -0.02839  -0.0323   0.1250   0.0044  87.8921 148.8521
  -9.300  -1.0944   0.01749  -0.02981  -0.0303   0.1250   0.0045  87.8921 148.9381
  -9.200  -1.0950   0.01629  -0.03080  -0.0283   0.1250   0.0045  87.8921 148.9977
  -9.100  -1.0921   0.01534  -0.03113  -0.0267   0.1250   0.0045  87.8921 149.0156
  -9.000  -1.0878   0.01450  -0.03119  -0.0251   0.1250   0.0046  87.8921 149.0228
  -8.900  -1.0821   0.01378  -0.03100  -0.0237   0.1250   0.0045  87.8921 149.0200
  -8.800  -1.0749   0.01317  -0.03056  -0.0224   0.1250   0.0045  87.8921 149.0099
  -8.700  -1.0666   0.01267  -0.02989  -0.0212   0.1250   0.0045  87.8921 149.0001
  -8.600  -1.0572   0.01225  -0.02907  -0.0201   0.1250   0.0045  87.8921 149.0000
  -8.400  -1.0368   0.01157  -0.02719  -0.0182   0.1250   0.0046  87.8921 149.0305
  -8.300  -1.0259   0.01129  -0.02618  -0.0174   0.1250   0.0046  87.8921 149.0634
  -8.200  -1.0147   0.01104  -0.02517  -0.0166   0.1250   0.0046  87.8921 149.0985
  -8.100  -1.0033   0.01081  -0.02415  -0.0159   0.1250   0.0047  87.8921 149.1347
  -8.000  -0.9916   0.01061  -0.02313  -0.0152   0.1250   0.0047  87.8921 149.1814
  -7.900  -0.9798   0.01043  -0.02213  -0.0146   0.1250   0.0048  87.8921 149.2399
  -7.800  -0.9678   0.01027  -0.02114  -0.0140   0.1250   0.0048  87.8921 149.3110
  -7.700  -0.9556   0.01011  -0.02018  -0.0134   0.1250   0.0049  87.8921 149.3960
  -7.600  -0.9434   0.00997  -0.01924  -0.0128   0.1250   0.0050  87.8921 149.4953
  -7.500  -0.9311   0.00984  -0.01833  -0.0123   0.1250   0.0051  87.8921 149.6080
  -7.400  -0.9188   0.00972  -0.01745  -0.0118   0.1250   0.0053  87.8921 149.7302
  -7.300  -0.9064   0.00961  -0.01660  -0.0113   0.1250   0.0054  87.8921 149.8542
  -7.200  -0.8939   0.00950  -0.01578  -0.0109   0.1250   0.0055  87.8921 149.9663
  -7.100  -0.8816   0.00938  -0.01501  -0.0104   0.1250   0.0057  87.8921 150.1317
  -7.000  -0.8692   0.00927  -0.01427  -0.0100   0.1250   0.0059  87.8921 150.3222
  -6.900  -0.8568   0.00917  -0.01355  -0.0096   0.1250   0.0061  87.8921 150.5168
  -6.800  -0.8443   0.00908  -0.01285  -0.0092   0.1250   0.0063  87.8921 150.7175
  -6.700  -0.8318   0.00900  -0.01218  -0.0088   0.1250   0.0065  87.8921 150.9009
  -6.600  -0.8193   0.00891  -0.01154  -0.0085   0.1250   0.0067  87.8921 151.0929
  -6.500  -0.8068   0.00882  -0.01094  -0.0081   0.1250   0.0070  87.8921 151.3566
  -6.400  -0.7944   0.00874  -0.01036  -0.0078   0.1250   0.0073  87.8921 151.6106
  -6.300  -0.7818   0.00866  -0.00980  -0.0075   0.1250   0.0075  87.8921 151.8501
  -6.200  -0.7693   0.00859  -0.00926  -0.0071   0.1250   0.0078  87.8921 152.0707
  -6.100  -0.7568   0.00851  -0.00876  -0.0068   0.1250   0.0081  87.8921 152.3904
  -6.000  -0.7443   0.00844  -0.00827  -0.0065   0.1250   0.0085  87.8921 152.6918
  -5.900  -0.7318   0.00837  -0.00780  -0.0063   0.1250   0.0088  87.8921 152.9499
  -5.800  -0.7193   0.00830  -0.00736  -0.0060   0.1250   0.0092  87.8921 153.2895
  -5.700  -0.7068   0.00824  -0.00694  -0.0057   0.1250   0.0096  87.8921 153.6437
  -5.600  -0.6943   0.00818  -0.00653  -0.0055   0.1250   0.0100  87.8921 153.9526
  -5.500  -0.6819   0.00811  -0.00615  -0.0052   0.1250   0.0106  87.8921 154.3702
  -5.400  -0.6694   0.00805  -0.00579  -0.0050   0.1250   0.0111  87.8921 154.8259
  -5.300  -0.6569   0.00799  -0.00545  -0.0048   0.1250   0.0118  87.8921 155.3123
  -5.200  -0.6444   0.00793  -0.00512  -0.0045   0.1250   0.0125  87.8921 155.8343
  -5.100  -0.6320   0.00787  -0.00481  -0.0043   0.1250   0.0132  87.8921 156.4028
  -5.000  -0.6195   0.00782  -0.00451  -0.0041   0.1250   0.0140  87.8921 156.9718
  -4.900  -0.6071   0.00776  -0.00423  -0.0039   0.1250   0.0149  87.8921 157.6273
  -4.800  -0.5947   0.00771  -0.00396  -0.0037   0.1250   0.0158  87.8921 158.2645
  -4.700  -0.5822   0.00766  -0.00371  -0.0035   0.1250   0.0168  87.8921 158.9496
  -4.600  -0.5698   0.00760  -0.00347  -0.0034   0.1250   0.0181  87.8921 159.7562
  -4.500  -0.5574   0.00755  -0.00325  -0.0032   0.1250   0.0194  87.8921 160.5825
  -4.400  -0.5450   0.00750  -0.00304  -0.0030   0.1250   0.0207  87.8921 161.4019
  -4.300  -0.5326   0.00745  -0.00283  -0.0029   0.1250   0.0221  87.8921 162.2635
  -4.200  -0.5202   0.00740  -0.00264  -0.0027   0.1250   0.0236  87.8921 163.1956
  -4.100  -0.5078   0.00735  -0.00246  -0.0025   0.1250   0.0255  87.8921 164.2272
  -4.000  -0.4955   0.00730  -0.00230  -0.0024   0.1250   0.0277  87.8921 165.4373
  -3.900  -0.4831   0.00726  -0.00214  -0.0023   0.1250   0.0300  87.8921 166.7008
  -3.800  -0.4708   0.00721  -0.00199  -0.0021   0.1250   0.0325  87.8921 167.9504
  -3.700  -0.4585   0.00716  -0.00185  -0.0020   0.1250   0.0354  87.8921 169.3469
  -3.600  -0.4462   0.00711  -0.00172  -0.0018   0.1250   0.0389  87.8921 170.9240
  -3.500  -0.4339   0.00706  -0.00160  -0.0017   0.1250   0.0426  87.8921 172.5386
  -3.400  -0.4216   0.00701  -0.00149  -0.0016   0.1250   0.0467  87.8921 174.1905
  -3.200  -0.3971   0.00690  -0.00129  -0.0013   0.1250   0.0568  87.8921 177.8837
  -3.100  -0.3849   0.00685  -0.00120  -0.0012   0.1250   0.0629  87.8921 179.8280
  -3.000  -0.3727   0.00679  -0.00111  -0.0011   0.1250   0.0696  87.8921 181.8252
  -2.900  -0.3606   0.00674  -0.00103  -0.0010   0.1250   0.0765  87.8921 183.6986
  -2.800  -0.3484   0.00668  -0.00096  -0.0009   0.1250   0.0847  87.8921 185.7055
  -2.700  -0.3363   0.00662  -0.00090  -0.0007   0.1250   0.0940  87.8921 187.7864
  -2.600  -0.3243   0.00655  -0.00084  -0.0006   0.1250   0.1044  87.8921 189.8939
  -2.500  -0.3122   0.00648  -0.00079  -0.0005   0.1250   0.1158  87.8921 191.9462
  -2.400  -0.3001   0.00643  -0.00074  -0.0004   0.1250   0.1250  87.8921 193.4803
  -2.300  -0.2876   0.00642  -0.00067  -0.0004   0.1250   0.1250  87.8921 193.4803
  -2.200  -0.2750   0.00642  -0.00061  -0.0003   0.1250   0.1250  87.8921 193.4803
  -2.100  -0.2625   0.00641  -0.00055  -0.0003   0.1250   0.1250  87.8921 193.4803
  -2.000  -0.2499   0.00640  -0.00050  -0.0003   0.1250   0.1250  87.8921 193.4803
  -1.900  -0.2374   0.00640  -0.00045  -0.0002   0.1250   0.1250  87.8921 193.4803
  -1.800  -0.2249   0.00639  -0.00040  -0.0002   0.1250   0.1250  87.8921 193.4803
  -1.700  -0.2123   0.00639  -0.00036  -0.0002   0.1250   0.1250  87.8921 193.4803
  -1.600  -0.1998   0.00638  -0.00032  -0.0002   0.1250   0.1250  87.8921 193.4803
  -1.500  -0.1873   0.00638  -0.00029  -0.0002   0.1250   0.1250  87.8921 193.4803
  -1.400  -0.1748   0.00638  -0.00025  -0.0001   0.1250   0.1250  87.8921 193.4803
  -1.300  -0.1623   0.00637  -0.00023  -0.0001   0.1250   0.1250  87.8921 193.4803
  -1.200  -0.1498   0.00637  -0.00020  -0.0001   0.1250   0.1250  87.8921 193.4803
  -1.100  -0.1373   0.00637  -0.00017  -0.0001   0.1250   0.1250  87.8921 193.4803
  -1.000  -0.1248   0.00636  -0.00015  -0.0001   0.1250   0.1250  87.8921 193.4803
  -0.900  -0.1123   0.00636  -0.00013  -0.0001   0.1250   0.1250  87.8921 193.4803
  -0.800  -0.0998   0.00636  -0.00012  -0.0001   0.1250   0.1250  87.8921 193.4803
  -0.700  -0.0873   0.00636  -0.00010  -0.0001   0.1250   0.1250  87.8921 193.4803
  -0.600  -0.0749   0.00636  -0.00009  -0.0000   0.1250   0.1250  87.8921 193.4803
  -0.500  -0.0624   0.00635  -0.00008  -0.0000   0.1250   0.1250  87.8921 193.4803
  -0.400  -0.0499   0.00635  -0.00007  -0.0000   0.1250   0.1250  87.8921 193.4803
  -0.300  -0.0374   0.00635  -0.00006  -0.0000   0.1250   0.1250  87.8921 193.4803
  -0.200  -0.0250   0.00635  -0.00006  -0.0000   0.1250   0.1250  87.8921 193.4803
  -0.100  -0.0125   0.00635  -0.00006  -0.0000   0.1250   0.1250  87.8921 193.4803
   0.000  -0.0000   0.00635  -0.00006   0.0000   0.1250   0.1250  87.8921 193.4803
   0.100   0.0125   0.00635  -0.00006   0.0000   0.1250   0.1250  87.8921 193.4803
   0.200   0.0249   0.00635  -0.00006   0.0000   0.1250   0.1250  87.8921 193.4803
   0.300   0.0374   0.00635  -0.00007   0.0000   0.1250   0.1250  87.8921 193.4803
   0.400   0.0499   0.00635  -0.00007   0.0000   0.1250   0.1250  87.8921 193.4803
   0.500   0.0624   0.00635  -0.00008   0.0000   0.1250   0.1250  87.8921 193.4803
   0.600   0.0749   0.00636  -0.00009   0.0000   0.1250   0.1250  87.8921 193.4803
   0.700   0.0873   0.00636  -0.00010   0.0001   0.1250   0.1250  87.8921 193.4803
   0.800   0.0998   0.00636  -0.00012   0.0001   0.1250   0.1250  87.8921 193.4803
   0.900   0.1123   0.00636  -0.00014   0.0001   0.1250   0.1250  87.8921 193.4803
   1.000   0.1248   0.00636  -0.00016   0.0001   0.1250   0.1250  87.8921 193.4803
   1.100   0.1373   0.00637  -0.00018   0.0001   0.1250   0.1250  87.8921 193.4803
   1.200   0.1498   0.00637  -0.00020   0.0001   0.1250   0.1250  87.8921 193.4803
   1.300   0.1623   0.00637  -0.00023   0.0001   0.1250   0.1250  87.8921 193.4803
   1.400   0.1748   0.00638  -0.00026   0.0001   0.1250   0.1250  87.8921 193.4803
   1.500   0.1873   0.00638  -0.00029   0.0002   0.1250   0.1250  87.8921 193.4803
   1.600   0.1998   0.00639  -0.00033   0.0002   0.1250   0.1250  87.8921 193.4803
   1.700   0.2123   0.00639  -0.00036   0.0002   0.1250   0.1250  87.8921 193.4803
   1.800   0.2248   0.00639  -0.00041   0.0002   0.1250   0.1250  87.8921 193.4803
   1.900   0.2374   0.00640  -0.00045   0.0003   0.1250   0.1250  87.8921 193.4803
   2.000   0.2499   0.00641  -0.00050   0.0003   0.1250   0.1250  87.8921 193.4803
   2.100   0.2624   0.00641  -0.00055   0.0003   0.1250   0.1250  87.8921 193.4803
   2.200   0.2750   0.00642  -0.00061   0.0003   0.1250   0.1250  87.8921 193.4803
   2.300   0.2875   0.00642  -0.00067   0.0004   0.1250   0.1250  87.8921 193.4803
   2.400   0.3001   0.00643  -0.00074   0.0004   0.1250   0.1250  87.8921 193.4803
   2.500   0.3123   0.00648  -0.00079   0.0005   0.1159   0.1250  89.3918 193.4803
   2.600   0.3243   0.00655  -0.00085   0.0006   0.1045   0.1250  91.4512 193.4803
   2.700   0.3363   0.00662  -0.00091   0.0007   0.0939   0.1250  93.5740 193.4803
   2.800   0.3484   0.00668  -0.00097   0.0009   0.0844   0.1250  95.6711 193.4803
   2.900   0.3606   0.00674  -0.00104   0.0010   0.0766   0.1250  97.5983 193.4803
   3.000   0.3727   0.00679  -0.00112   0.0011   0.0696   0.1250  99.4628 193.4803
   3.100   0.3849   0.00685  -0.00120   0.0012   0.0628   0.1250 101.4639 193.4803
   3.200   0.3971   0.00690  -0.00129   0.0013   0.0569   0.1250 103.3584 193.4803
   3.300   0.4093   0.00696  -0.00139   0.0015   0.0516   0.1250 105.2053 193.4803
   3.400   0.4216   0.00701  -0.00150   0.0016   0.0466   0.1250 107.0639 193.4803
   3.500   0.4339   0.00706  -0.00161   0.0017   0.0426   0.1250 108.7024 193.4803
   3.600   0.4462   0.00711  -0.00173   0.0018   0.0388   0.1250 110.3040 193.4803
   3.700   0.4584   0.00716  -0.00186   0.0020   0.0353   0.1250 111.8944 193.4803
   3.800   0.4708   0.00721  -0.00200   0.0021   0.0325   0.1250 113.2271 193.4803
   3.900   0.4831   0.00725  -0.00215   0.0023   0.0300   0.1250 114.5079 193.4803
   4.000   0.4955   0.00730  -0.00231   0.0024   0.0275   0.1250 115.7944 193.4803
   4.400   0.5450   0.00750  -0.00305   0.0030   0.0206   0.1250 119.7687 193.4803
   4.500   0.5574   0.00755  -0.00326   0.0032   0.0193   0.1250 120.5954 193.4803
   4.600   0.5698   0.00760  -0.00349   0.0034   0.0180   0.1250 121.4127 193.4803
   4.700   0.5822   0.00765  -0.00373   0.0035   0.0169   0.1250 122.1484 193.4803
   4.800   0.5947   0.00771  -0.00398   0.0037   0.0159   0.1250 122.8161 193.4803
   4.900   0.6071   0.00776  -0.00425   0.0039   0.0151   0.1250 123.3960 193.4803
   5.000   0.6195   0.00782  -0.00453   0.0041   0.0142   0.1250 124.0145 193.4803
   5.100   0.6320   0.00787  -0.00483   0.0043   0.0135   0.1250 124.5346 193.4803
   5.200   0.6445   0.00793  -0.00514   0.0045   0.0127   0.1250 125.0826 193.4803
   5.300   0.6569   0.00798  -0.00547   0.0048   0.0121   0.1250 125.5471 193.4803
   5.400   0.6694   0.00805  -0.00581   0.0050   0.0114   0.1250 126.0573 193.4803
   5.500   0.6819   0.00811  -0.00618   0.0052   0.0109   0.1250 126.4604 193.4803
   5.600   0.6943   0.00817  -0.00656   0.0055   0.0103   0.1250 126.8986 193.4803
   5.700   0.7068   0.00823  -0.00696   0.0057   0.0099   0.1250 127.2235 193.4803
   5.800   0.7193   0.00830  -0.00739   0.0060   0.0095   0.1250 127.5769 193.4803
   5.900   0.7318   0.00838  -0.00782   0.0063   0.0090   0.1250 127.9686 193.4803
   6.000   0.7443   0.00844  -0.00829   0.0065   0.0087   0.1250 128.2201 193.4803
   6.100   0.7568   0.00851  -0.00878   0.0068   0.0084   0.1250 128.5205 193.4803
   6.200   0.7693   0.00859  -0.00929   0.0071   0.0080   0.1250 128.8380 193.4803
   6.300   0.7818   0.00867  -0.00982   0.0075   0.0077   0.1250 129.0970 193.4803
   6.400   0.7943   0.00874  -0.01039   0.0078   0.0074   0.1250 129.3286 193.4803
   6.500   0.8068   0.00882  -0.01097   0.0081   0.0071   0.1250 129.5825 193.4803
   6.600   0.8192   0.00891  -0.01157   0.0085   0.0068   0.1250 129.8402 193.4803
   6.700   0.8317   0.00901  -0.01221   0.0089   0.0066   0.1250 130.0607 193.4803
   6.800   0.8442   0.00909  -0.01288   0.0092   0.0064   0.1250 130.2323 193.4803
   6.900   0.8567   0.00918  -0.01358   0.0096   0.0062   0.1250 130.4282 193.4803
   7.000   0.8692   0.00928  -0.01430   0.0100   0.0060   0.1250 130.6222 193.4803
   7.100   0.8815   0.00939  -0.01505   0.0104   0.0058   0.1250 130.8086 193.4803
   7.200   0.8937   0.00952  -0.01580   0.0109   0.0056   0.1250 131.0043 193.4803
   7.300   0.9062   0.00962  -0.01662   0.0114   0.0055   0.1250 131.1057 193.4803
   7.400   0.9186   0.00974  -0.01747   0.0118   0.0054   0.1250 131.2253 193.4803
   7.500   0.9309   0.00986  -0.01835   0.0123   0.0052   0.1250 131.3475 193.4803
   7.600   0.9432   0.00999  -0.01926   0.0129   0.0051   0.1250 131.4624 193.4803
   7.700   0.9554   0.01013  -0.02019   0.0134   0.0050   0.1250 131.5650 193.4803
   7.800   0.9675   0.01029  -0.02115   0.0140   0.0049   0.1250 131.6541 193.4803
   7.900   0.9795   0.01045  -0.02214   0.0146   0.0048   0.1250 131.7333 193.4803
   8.000   0.9914   0.01063  -0.02315   0.0152   0.0048   0.1250 131.8086 193.4803
   8.100   1.0031   0.01083  -0.02417   0.0159   0.0047   0.1250 131.8749 193.4803
   8.200   1.0145   0.01106  -0.02518   0.0166   0.0047   0.1250 131.9258 193.4803
   8.300   1.0256   0.01132  -0.02619   0.0174   0.0046   0.1250 131.9540 193.4803
   8.400   1.0364   0.01160  -0.02717   0.0183   0.0046   0.1250 131.9699 193.4803
   8.500   1.0468   0.01193  -0.02812   0.0192   0.0046   0.1250 131.9768 193.4803
   8.600   1.0567   0.01230  -0.02902   0.0202   0.0046   0.1250 131.9793 193.4803
   8.700   1.0659   0.01273  -0.02982   0.0213   0.0046   0.1250 131.9825 193.4803
   8.800   1.0743   0.01323  -0.03049   0.0224   0.0046   0.1250 131.9921 193.4803
   8.900   1.0816   0.01381  -0.03098   0.0237   0.0046   0.1250 132.0073 193.4803
   9.000   1.0875   0.01452  -0.03120   0.0251   0.0046   0.1250 132.0308 193.4803
   9.100   1.0915   0.01539  -0.03105   0.0267   0.0045   0.1250 132.0689 193.4803
   9.200   1.0933   0.01642  -0.03047   0.0285   0.0045   0.1250 132.1248 193.4803
   9.300   1.0928   0.01762  -0.02950   0.0304   0.0044   0.1250 132.1952 193.4803
   9.400   1.0904   0.01893  -0.02824   0.0324   0.0043   0.1250 132.2711 193.4803
   9.500   1.0864   0.02029  -0.02681   0.0344   0.0043   0.1250 132.3440 193.4803
   9.600   1.0814   0.02166  -0.02532   0.0365   0.0042   0.1250 132.4089 193.4803
   9.700   1.0755   0.02301  -0.02383   0.0386   0.0041   0.1250 132.4642 193.4803
   9.800   1.0688   0.02430  -0.02240   0.0407   0.0041   0.1250 132.5107 193.4803
   9.900   1.0615   0.02551  -0.02107   0.0428   0.0041   0.1250 132.5486 193.4803
  10.000   1.0522   0.02626  -0.02026   0.0457   0.0040   0.1250 132.5691 193.4803
  10.100   1.0428   0.02708  -0.01943   0.0484   0.0040   0.1250 132.5873 193.4803
  10.200   1.0337   0.02798  -0.01854   0.0508   0.0040   0.1250 132.6045 193.4803
  10.300   1.0247   0.02894  -0.01758   0.0528   0.0040   0.1250 132.6201 193.4803
  10.400   1.0159   0.02997  -0.01657   0.0545   0.0040   0.1250 132.6342 193.4803
  10.500   1.0074   0.03106  -0.01550   0.0558   0.0040   0.1250 132.6466 193.4803
  10.600   0.9990   0.03224  -0.01436   0.0567   0.0040   0.1250 132.6577 193.4803
  10.700   0.9909   0.03351  -0.01314   0.0574   0.0040   0.1250 132.6675 193.4803
  10.800   0.9831   0.03487  -0.01183   0.0577   0.0039   0.1250 132.6761 193.4803
  10.900   0.9755   0.03634  -0.01043   0.0578   0.0039   0.1250 132.6837 193.4803
  11.000   0.9683   0.03790  -0.00893   0.0575   0.0039   0.1250 132.6903 193.4803
  11.100   0.9613   0.03957  -0.00732   0.0570   0.0039   0.1250 132.6959 193.4803
  11.200   0.9546   0.04133  -0.00562   0.0563   0.0039   0.1250 132.7006 193.4803
  11.300   0.9482   0.04318  -0.00382   0.0554   0.0039   0.1250 132.7043 193.4803
  11.400   0.9421   0.04513  -0.00193   0.0544   0.0039   0.1250 132.7071 193.4803
  11.500   0.9363   0.04715   0.00005   0.0531   0.0039   0.1250 132.7091 193.4803
  11.600   0.9308   0.04925   0.00212   0.0518   0.0039   0.1250 132.7102 193.4803
  11.700   0.9255   0.05142   0.00427   0.0503   0.0039   0.1250 132.7106 193.4803
  11.800   0.9204   0.05366   0.00651   0.0488   0.0039   0.1250 132.7103 193.4803
  11.900   0.9156   0.05596   0.00882   0.0472   0.0039   0.1250 132.7092 193.4803
  12.000   0.9110   0.05833   0.01121   0.0455   0.0039   0.1250 132.7076 193.4803
